*WARNING DETAIL FILE

******************************************************************************
*DSSAT Cropping System Model Ver. 4.7.5.007 -    NOV 29, 2024; 18:47:16

*RUN   0


******************************************************************************
*DSSAT Cropping System Model Ver. 4.7.5.007 -    NOV 29, 2024; 18:48:13

*RUN   0


******************************************************************************

******************************************************************************

******************************************************************************

******************************************************************************

******************************************************************************
